	4

   H	        5.673140	        9.528940	        6.247180
   O	        5.823640	        8.732340	        4.886350
   N	        2.017790	        8.399910	        7.967680
   S	        1.199660	        9.036360	        6.769910
	4

   H	        5.673140	        9.528940	        6.247180
   O	        5.823640	        8.732340	        4.886350
   N	        2.017790	        8.399910	        7.967680
   S	        1.199660	        9.036360	        6.769910
	4

   H	        5.673140	        9.528940	        6.247180
   O	        5.823640	        8.732340	        4.886350
   N	        2.017790	        8.399910	        7.967680
   S	        1.199660	        9.036360	        6.769910
	4

   H	        5.673140	        9.528940	        6.247180
   O	        5.823640	        8.732340	        4.886350
   N	        2.017790	        8.399910	        7.967680
   S	        1.199660	        9.036360	        6.769910